29
Coordinates from ORCA-job molecule_neutral_opt_freq E -3394.112663407032
  O           0.62893089084655      0.99699469684890     -1.12806101986277
  C           1.27340217463540      0.13760941926848     -0.56508172590544
  N           0.68794262945635     -1.00788197234636     -0.07816445554599
  O          -0.68846871334254     -1.03883362795477     -0.12046829499522
  C          -1.29491921709911     -0.20567436179222      0.78096005800335
  C          -2.76554068233527     -0.19655876247450      0.60270232633091
  C          -3.39097084256660     -0.89608237835550     -0.42661393514177
  C          -4.76973898859650     -0.84789764446759     -0.55698204571087
  C          -5.50444850246307     -0.09753490705210      0.34952127649023
  Br         -7.38928029007120     -0.02952480338862      0.17270985537300
  C          -4.89775811853722      0.60542628699571      1.38120726425641
  C          -3.51992871171059      0.55160204036218      1.50276898617832
  O          -0.68167735982800      0.40876153340204      1.60404205328787
  C           2.75228500824003      0.19853816427873     -0.38478858810409
  C           3.34942422622349      1.45667623152742     -0.39062441254266
  C           4.72044672811767      1.57238198579932     -0.22449820472763
  C           5.49905899288035      0.43155844495262     -0.06382736843852
  C           4.90589404508948     -0.82492062327245     -0.06901708094893
  C           3.53248552232195     -0.94507915200982     -0.22647521170511
  H           1.06395168543036     -1.45044737056227      0.75261837279645
  H          -2.80891047488279     -1.47578439297306     -1.12911967466518
  H          -5.26518012319769     -1.38444910335826     -1.35415904871155
  H          -5.49113691896293      1.18482751470095      2.07474659948259
  H          -3.02183796994757      1.09048441804215      2.29781822279776
  H           2.72970358463260      2.33457430195461     -0.51859245443697
  H           5.18296946089864      2.55081323841606     -0.22096007957623
  H           6.57059347958462      0.52216861444497      0.06077772761116
  H           5.51336138662580     -1.71361118092834      0.04145367236677
  H           3.07934709855779     -1.92813662005831     -0.25141333395591
