29
Coordinates from ORCA-job molecule_anion_opt_freq E -3394.194113670162
  O           0.44137509218648      0.79114002942899     -1.17291487411323
  C           1.22882351262713     -0.02751219696315     -0.63964540333559
  N           0.70400356179249     -1.33132352218456     -0.25467276639880
  O          -0.70029341056561     -1.30379858201481     -0.19280993722242
  C          -1.21216344144397     -0.51877741347012      0.77645742668428
  C          -2.67420801612263     -0.31533009865025      0.60563301507119
  C          -3.31720364611103     -0.60823691681305     -0.59420467261072
  C          -4.68009077298229     -0.38835606005750     -0.72331228319340
  C          -5.38345340339794      0.11807351479439      0.35966696557181
  Br         -7.24809044120398      0.41714343461946      0.19051039944689
  C          -4.75972950606741      0.41553802553414      1.56337282727642
  C          -3.39665778229630      0.19867261745560      1.67848008225755
  O          -0.55764848502839     -0.07785393959385      1.68413157337218
  C           2.61449442071029      0.14855966031424     -0.41643409467353
  C           3.23748663102166      1.38217011249311     -0.79216029680336
  C           4.57861790871895      1.59921691275978     -0.58201903136949
  C           5.39540831583411      0.61727140532502      0.00699205443736
  C           4.80779388717411     -0.60354671508679      0.36696880495585
  C           3.46591629386235     -0.84816635333505      0.16568619561497
  H           1.03102565781660     -1.59133959649796      0.67453217257399
  H          -2.75425345854201     -0.99635469362950     -1.43179672645020
  H          -5.18649714429620     -0.60619139794323     -1.65339199115686
  H          -5.32790072223048      0.80981100565341      2.39446975274593
  H          -2.88617715236585      0.42538618917505      2.60521297335309
  H           2.62477206699017      2.15120082534250     -1.24534627873224
  H           5.01175765461078      2.54872205146117     -0.87787010196665
  H           6.44990041840741      0.79526438769108      0.16946065509805
  H           5.42048630594682     -1.38137207796458      0.80995486654418
  H           3.07250565495470     -1.82001061784356      0.43752817302273
